<?xml version="1.0"?>
<!-- 
194 Cars leaving the Computer Science Building and campus of the University of Erlangen-Nuremberg
Copyright (C) 2008 Christoph Sommer <christoph.sommer@informatik.uni-erlangen.de>
Licensed under the Creative Commons Attribution-ShareAlike 2.0 license <http://creativecommons.org/licenses/by-sa/2.0/>
-->
<routes>
    <vType accel="2.6" decel="4.5" id="CarA" length="5" minGap="2.5" maxSpeed="110" sigma="0.5" guiShape="passenger"/>
    <vType accel="2.6" decel="4.5" id="CarB" length="5" minGap="2.5" maxSpeed="60" sigma="0.5" guiShape="passenger"/>
    <vType accel="2.6" decel="4.5" id="CarC" length="5" minGap="2.5" maxSpeed="60" sigma="0.5" guiShape="passenger"/>
    <vType accel="2.6" decel="0" id="CarD" length="5" minGap="2.5" maxSpeed="60" sigma="0.5" guiShape="passenger"/>

    <route id="route02" edges="0/2to1/2 1/2to2/2 2/2to3/2 3/2to4/2 4/2to5/2 5/2to6/2"/>
    <route id="route03" edges="3/0to3/1 3/1to3/2 3/2to3/3 3/3to3/4"/>

    <flow id="flow0" type="CarA" route="route02" begin="0" period="1" number="8" departSpeed="max"/>
</routes>
